functions/OneTimeScripts/validationAgainstOpenDSS_MATLAB/ieee123_1ph_created/results/powers7.csv
Element, Terminal, P(kW), Q(kvar),  P_Normal, Q_Normal, P_Emergency, Q_Emergency
"Line.L115"             ,   1,       525.2,       204.7,         0.0,         0.0,         0.0,         0.0
"Line.L115"             ,   2,      -524.0,      -202.1
"Line.L1"               ,   1,         4.5,         2.2,         0.0,         0.0,         0.0,         0.0
"Line.L1"               ,   2,        -4.5,        -2.2
"Line.L2"               ,   1,        22.3,        11.1,         0.0,         0.0,         0.0,         0.0
"Line.L2"               ,   2,       -22.3,       -11.1
"Line.L3"               ,   1,       488.3,       184.2,         0.0,         0.0,         0.0,         0.0
"Line.L3"               ,   2,      -487.5,      -182.6
"Line.L4"               ,   1,         8.9,         4.5,         0.0,         0.0,         0.0,         0.0
"Line.L4"               ,   2,        -8.9,        -4.5
"Line.L5"               ,   1,        13.4,         6.7,         0.0,         0.0,         0.0,         0.0
"Line.L5"               ,   2,       -13.4,        -6.7
"Line.L6"               ,   1,         8.9,         4.5,         0.0,         0.0,         0.0,         0.0
"Line.L6"               ,   2,        -8.9,        -4.5
"Line.L7"               ,   1,       483.1,       180.3,         0.0,         0.0,         0.0,         0.0
"Line.L7"               ,   2,      -482.5,      -179.2
"Line.L8"               ,   1,         4.5,         2.2,         0.0,         0.0,         0.0,         0.0
"Line.L8"               ,   2,        -4.5,        -2.2
"Line.L9"               ,   1,         8.9,        11.1,         0.0,         0.0,         0.0,         0.0
"Line.L9"               ,   2,        -8.9,       -11.1
"Line.L10"              ,   1,       469.1,       165.9,         0.0,         0.0,         0.0,         0.0
"Line.L10"              ,   2,      -468.4,      -164.4
"Line.L11"              ,   1,        13.4,         6.7,         0.0,         0.0,         0.0,         0.0
"Line.L11"              ,   2,       -13.4,        -6.7
"Line.L12"              ,   1,        22.3,        11.1,         0.0,         0.0,         0.0,         0.0
"Line.L12"              ,   2,       -22.3,       -11.1
"Line.L13"              ,   1,       165.6,       146.0,         0.0,         0.0,         0.0,         0.0
"Line.L13"              ,   2,      -165.2,      -145.1
"Line.L14"              ,   1,         8.9,         4.5,         0.0,         0.0,         0.0,         0.0
"Line.L14"              ,   2,        -8.9,        -4.5
"Line.L15"              ,   1,         4.5,         2.2,         0.0,         0.0,         0.0,         0.0
"Line.L15"              ,   2,        -4.5,        -2.2
"Line.L16"              ,   1,         8.9,         4.5,         0.0,         0.0,         0.0,         0.0
"Line.L16"              ,   2,        -8.9,        -4.5
"Line.L17"              ,   1,         4.5,         2.2,         0.0,         0.0,         0.0,         0.0
"Line.L17"              ,   2,        -4.5,        -2.2
"Line.L18"              ,   1,        17.8,         8.9,         0.0,         0.0,         0.0,         0.0
"Line.L18"              ,   2,       -17.8,        -8.9
"Line.L19"              ,   1,        49.0,        31.2,         0.0,         0.0,         0.0,         0.0
"Line.L19"              ,   2,       -49.0,       -31.2
"Line.L20"              ,   1,         8.9,         4.5,         0.0,         0.0,         0.0,         0.0
"Line.L20"              ,   2,        -8.9,        -4.5
"Line.L21"              ,   1,         8.9,         4.5,         0.0,         0.0,         0.0,         0.0
"Line.L21"              ,   2,        -8.9,        -4.5
"Line.L22"              ,   1,        40.1,        26.7,         0.0,         0.0,         0.0,         0.0
"Line.L22"              ,   2,       -40.1,       -26.7
"Line.L23"              ,   1,         8.9,         4.5,         0.0,         0.0,         0.0,         0.0
"Line.L23"              ,   2,        -8.9,        -4.5
"Line.L24"              ,   1,        31.2,        22.3,         0.0,         0.0,         0.0,         0.0
"Line.L24"              ,   2,       -31.2,       -22.3
"Line.L25"              ,   1,        17.8,         8.9,         0.0,         0.0,         0.0,         0.0
"Line.L25"              ,   2,       -17.8,        -8.9
"Line.L26"              ,   1,        13.4,        13.4,         0.0,         0.0,         0.0,         0.0
"Line.L26"              ,   2,       -13.4,       -13.4
"Line.L27"              ,   1,         8.9,         4.5,         0.0,         0.0,         0.0,         0.0
"Line.L27"              ,   2,        -8.9,        -4.5
"Line.L28"              ,   1,         8.9,         4.5,         0.0,         0.0,         0.0,         0.0
"Line.L28"              ,   2,        -8.9,        -4.5
"Line.L29"              ,   1,         8.9,         4.5,         0.0,         0.0,         0.0,         0.0
"Line.L29"              ,   2,        -8.9,        -4.5
"Line.L30"              ,   1,        17.8,         8.9,         0.0,         0.0,         0.0,         0.0
"Line.L30"              ,   2,       -17.8,        -8.9
"Line.L31"              ,   1,         8.9,         4.5,         0.0,         0.0,         0.0,         0.0
"Line.L31"              ,   2,        -8.9,        -4.5
"Line.L32"              ,   1,        -0.0,        -0.0,         0.0,         0.0,         0.0,         0.0
"Line.L32"              ,   2,         0.0,        -0.0
"Line.L33"              ,   1,         4.5,         2.2,         0.0,         0.0,         0.0,         0.0
"Line.L33"              ,   2,        -4.5,        -2.2
"Line.L34"              ,   1,        13.4,         6.7,         0.0,         0.0,         0.0,         0.0
"Line.L34"              ,   2,       -13.4,        -6.7
"Line.L35"              ,   1,        17.8,         8.9,         0.0,         0.0,         0.0,         0.0
"Line.L35"              ,   2,       -17.8,        -8.9
"Line.L36"              ,   1,        71.5,        91.5,         0.0,         0.0,         0.0,         0.0
"Line.L36"              ,   2,       -71.5,       -91.4
"Line.L37"              ,   1,         8.9,         4.5,         0.0,         0.0,         0.0,         0.0
"Line.L37"              ,   2,        -8.9,        -4.5
"Line.L38"              ,   1,         8.9,         4.5,         0.0,         0.0,         0.0,         0.0
"Line.L38"              ,   2,        -8.9,        -4.5
"Line.L39"              ,   1,         4.5,         2.2,         0.0,         0.0,         0.0,         0.0
"Line.L39"              ,   2,        -4.5,        -2.2
"Line.L40"              ,   1,         4.5,         2.2,         0.0,         0.0,         0.0,         0.0
"Line.L40"              ,   2,        -4.5,        -2.2
"Line.L41"              ,   1,        67.0,        89.2,         0.0,         0.0,         0.0,         0.0
"Line.L41"              ,   2,       -67.0,       -89.2
"Line.L42"              ,   1,         8.9,         4.5,         0.0,         0.0,         0.0,         0.0
"Line.L42"              ,   2,        -8.9,        -4.5
"Line.L43"              ,   1,        53.6,        82.5,         0.0,         0.0,         0.0,         0.0
"Line.L43"              ,   2,       -53.6,       -82.4
"Line.L44"              ,   1,         8.9,         4.5,         0.0,         0.0,         0.0,         0.0
"Line.L44"              ,   2,        -8.9,        -4.5
"Line.L45"              ,   1,        44.7,        78.0,         0.0,         0.0,         0.0,         0.0
"Line.L45"              ,   2,       -44.7,       -77.9
"Line.L46"              ,   1,         4.5,         2.2,         0.0,         0.0,         0.0,         0.0
"Line.L46"              ,   2,        -4.5,        -2.2
"Line.L47"              ,   1,       -23.2,        33.4,         0.0,         0.0,         0.0,         0.0
"Line.L47"              ,   2,        23.2,       -33.4
"Line.L48"              ,   1,        44.5,        27.8,         0.0,         0.0,         0.0,         0.0
"Line.L48"              ,   2,       -44.5,       -27.8
"Line.L49"              ,   1,        13.4,         6.7,         0.0,         0.0,         0.0,         0.0
"Line.L49"              ,   2,       -13.4,        -6.7
"Line.L50"              ,   1,         4.5,         2.2,         0.0,         0.0,         0.0,         0.0
"Line.L50"              ,   2,        -4.5,        -2.2
"Line.L51"              ,   1,         0.0,        -0.0,         0.0,         0.0,         0.0,         0.0
"Line.L51"              ,   2,        -0.0,         0.0
"Line.L52"              ,   1,       271.3,         2.1,         0.0,         0.0,         0.0,         0.0
"Line.L52"              ,   2,      -271.1,        -1.8
"Line.L53"              ,   1,       262.2,        -2.6,         0.0,         0.0,         0.0,         0.0
"Line.L53"              ,   2,      -262.2,         2.8
"Line.L54"              ,   1,         8.9,         4.5,         0.0,         0.0,         0.0,         0.0
"Line.L54"              ,   2,        -8.9,        -4.5
"Line.L55"              ,   1,       253.2,        -7.3,         0.0,         0.0,         0.0,         0.0
"Line.L55"              ,   2,      -253.0,         7.7
"Line.L56"              ,   1,         4.5,         2.2,         0.0,         0.0,         0.0,         0.0
"Line.L56"              ,   2,        -4.5,        -2.2
"Line.L57"              ,   1,         2.2,         4.5,         0.0,         0.0,         0.0,         0.0
"Line.L57"              ,   2,        -2.2,        -4.5
"Line.L58"              ,   1,       250.8,       -12.2,         0.0,         0.0,         0.0,         0.0
"Line.L58"              ,   2,      -250.3,        13.2
"Line.L59"              ,   1,         4.5,         2.2,         0.0,         0.0,         0.0,         0.0
"Line.L59"              ,   2,        -4.5,        -2.2
"Line.L60"              ,   1,         0.0,        -0.0,         0.0,         0.0,         0.0,         0.0
"Line.L60"              ,   2,        -0.0,         0.0
"Line.L61"              ,   1,        35.8,        46.7,         0.0,         0.0,         0.0,         0.0
"Line.L61"              ,   2,       -35.8,       -46.7
"Line.L62"              ,   1,        26.9,        42.2,         0.0,         0.0,         0.0,         0.0
"Line.L62"              ,   2,       -26.9,       -42.2
"Line.L63"              ,   1,        17.9,        37.8,         0.0,         0.0,         0.0,         0.0
"Line.L63"              ,   2,       -17.9,       -37.8
"Line.L64"              ,   1,         1.2,        30.0,         0.0,         0.0,         0.0,         0.0
"Line.L64"              ,   2,        -1.2,       -30.0
"Line.L65"              ,   1,        16.7,         7.8,         0.0,         0.0,         0.0,         0.0
"Line.L65"              ,   2,       -16.7,        -7.8
"Line.L66"              ,   1,        26.7,        13.4,         0.0,         0.0,         0.0,         0.0
"Line.L66"              ,   2,       -26.7,       -13.4
"Line.L67"              ,   1,        98.4,      -124.9,         0.0,         0.0,         0.0,         0.0
"Line.L67"              ,   2,       -98.3,       125.1
"Line.L68"              ,   1,        84.8,        49.1,         0.0,         0.0,         0.0,         0.0
"Line.L68"              ,   2,       -84.7,       -49.1
"Line.L69"              ,   1,        22.3,        11.1,         0.0,         0.0,         0.0,         0.0
"Line.L69"              ,   2,       -22.3,       -11.1
"Line.L70"              ,   1,        13.4,         6.7,         0.0,         0.0,         0.0,         0.0
"Line.L70"              ,   2,       -13.4,        -6.7
"Line.L71"              ,   1,         8.9,         4.5,         0.0,         0.0,         0.0,         0.0
"Line.L71"              ,   2,        -8.9,        -4.5
"Line.L72"              ,   1,        26.7,        13.4,         0.0,         0.0,         0.0,         0.0
"Line.L72"              ,   2,       -26.7,       -13.4
"Line.L73"              ,   1,        71.5,      -138.5,         0.0,         0.0,         0.0,         0.0
"Line.L73"              ,   2,       -71.5,       138.6
"Line.L74"              ,   1,        17.8,         8.9,         0.0,         0.0,         0.0,         0.0
"Line.L74"              ,   2,       -17.8,        -8.9
"Line.L75"              ,   1,         8.9,         4.5,         0.0,         0.0,         0.0,         0.0
"Line.L75"              ,   2,        -8.9,        -4.5
"Line.L76"              ,   1,        54.0,      -161.0,         0.0,         0.0,         0.0,         0.0
"Line.L76"              ,   2,       -53.9,       161.2
"Line.L77"              ,   1,        44.6,       -17.7,         0.0,         0.0,         0.0,         0.0
"Line.L77"              ,   2,       -44.6,        17.7
"Line.L78"              ,   1,        45.0,      -165.7,         0.0,         0.0,         0.0,         0.0
"Line.L78"              ,   2,       -44.9,       165.8
"Line.L79"              ,   1,         8.9,         4.5,         0.0,         0.0,         0.0,         0.0
"Line.L79"              ,   2,        -8.9,        -4.5
"Line.L80"              ,   1,        36.0,      -170.2,         0.0,         0.0,         0.0,         0.0
"Line.L80"              ,   2,       -35.9,       170.5
"Line.L81"              ,   1,        27.0,      -175.0,         0.0,         0.0,         0.0,         0.0
"Line.L81"              ,   2,       -26.9,       175.1
"Line.L82"              ,   1,        13.5,      -181.8,         0.0,         0.0,         0.0,         0.0
"Line.L82"              ,   2,       -13.5,       182.0
"Line.L83"              ,   1,        13.4,         6.7,         0.0,         0.0,         0.0,         0.0
"Line.L83"              ,   2,       -13.4,        -6.7
"Line.L84"              ,   1,         4.5,      -186.4,         0.0,         0.0,         0.0,         0.0
"Line.L84"              ,   2,        -4.5,       186.6
"Line.L85"              ,   1,         8.9,         4.5,         0.0,         0.0,         0.0,         0.0
"Line.L85"              ,   2,        -8.9,        -4.5
"Line.L86"              ,   1,        40.1,       -19.9,         0.0,         0.0,         0.0,         0.0
"Line.L86"              ,   2,       -40.1,        19.9
"Line.L87"              ,   1,         8.9,       -11.1,         0.0,         0.0,         0.0,         0.0
"Line.L87"              ,   2,        -8.9,        11.1
"Line.L88"              ,   1,        35.6,       -13.3,         0.0,         0.0,         0.0,         0.0
"Line.L88"              ,   2,       -35.6,        13.3
"Line.L89"              ,   1,         8.9,       -11.1,         0.0,         0.0,         0.0,         0.0
"Line.L89"              ,   2,        -8.9,        11.1
"Line.L90"              ,   1,        26.7,        -2.2,         0.0,         0.0,         0.0,         0.0
"Line.L90"              ,   2,       -26.7,         2.2
"Line.L91"              ,   1,         8.9,       -11.1,         0.0,         0.0,         0.0,         0.0
"Line.L91"              ,   2,        -8.9,        11.1
"Line.L92"              ,   1,        17.8,         8.9,         0.0,         0.0,         0.0,         0.0
"Line.L92"              ,   2,       -17.8,        -8.9
"Line.L93"              ,   1,         8.9,         4.5,         0.0,         0.0,         0.0,         0.0
"Line.L93"              ,   2,        -8.9,        -4.5
"Line.L94"              ,   1,         8.9,         4.5,         0.0,         0.0,         0.0,         0.0
"Line.L94"              ,   2,        -8.9,        -4.5
"Line.L95"              ,   1,         4.5,         2.2,         0.0,         0.0,         0.0,         0.0
"Line.L95"              ,   2,        -4.5,        -2.2
"Line.L96"              ,   1,        13.4,        13.4,         0.0,         0.0,         0.0,         0.0
"Line.L96"              ,   2,       -13.4,       -13.4
"Line.L97"              ,   1,         4.5,         8.9,         0.0,         0.0,         0.0,         0.0
"Line.L97"              ,   2,        -4.5,        -8.9
"Line.L98"              ,   1,        -4.4,         4.4,         0.0,         0.0,         0.0,         0.0
"Line.L98"              ,   2,         4.4,        -4.4
"Line.L99"              ,   1,         0.0,        -0.0,         0.0,         0.0,         0.0,         0.0
"Line.L99"              ,   2,         0.0,         0.0
"Line.L118"             ,   1,        71.3,        35.7,         0.0,         0.0,         0.0,         0.0
"Line.L118"             ,   2,       -71.3,       -35.7
"Line.L100"             ,   1,        22.3,        11.1,         0.0,         0.0,         0.0,         0.0
"Line.L100"             ,   2,       -22.3,       -11.1
"Line.L101"             ,   1,        49.0,        24.5,         0.0,         0.0,         0.0,         0.0
"Line.L101"             ,   2,       -49.0,       -24.5
"Line.L102"             ,   1,        17.8,         8.9,         0.0,         0.0,         0.0,         0.0
"Line.L102"             ,   2,       -17.8,        -8.9
"Line.L103"             ,   1,         8.9,         4.5,         0.0,         0.0,         0.0,         0.0
"Line.L103"             ,   2,        -8.9,        -4.5
"Line.L104"             ,   1,        17.8,         8.9,         0.0,         0.0,         0.0,         0.0
"Line.L104"             ,   2,       -17.8,        -8.9
"Line.L105"             ,   1,        31.2,        15.6,         0.0,         0.0,         0.0,         0.0
"Line.L105"             ,   2,       -31.2,       -15.6
"Line.L106"             ,   1,         8.9,         4.5,         0.0,         0.0,         0.0,         0.0
"Line.L106"             ,   2,        -8.9,        -4.5
"Line.L107"             ,   1,        31.2,        15.6,         0.0,         0.0,         0.0,         0.0
"Line.L107"             ,   2,       -31.2,       -15.6
"Line.L108"             ,   1,         0.0,        -0.0,         0.0,         0.0,         0.0,         0.0
"Line.L108"             ,   2,         0.0,        -0.0
"Line.L109"             ,   1,        22.3,        11.1,         0.0,         0.0,         0.0,         0.0
"Line.L109"             ,   2,       -22.3,       -11.1
"Line.L110"             ,   1,         4.5,         2.2,         0.0,         0.0,         0.0,         0.0
"Line.L110"             ,   2,        -4.5,        -2.2
"Line.L111"             ,   1,        17.8,         8.9,         0.0,         0.0,         0.0,         0.0
"Line.L111"             ,   2,       -17.8,        -8.9
"Line.L112"             ,   1,        13.4,         6.7,         0.0,         0.0,         0.0,         0.0
"Line.L112"             ,   2,       -13.4,        -6.7
"Line.L113"             ,   1,         4.5,         2.2,         0.0,         0.0,         0.0,         0.0
"Line.L113"             ,   2,        -4.5,        -2.2
"Line.L114"             ,   1,        98.3,       105.0,         0.0,         0.0,         0.0,         0.0
"Line.L114"             ,   2,       -98.2,      -104.9
"Line.L116"             ,   1,       280.5,         7.2,         0.0,         0.0,         0.0,         0.0
"Line.L116"             ,   2,      -280.2,        -6.6
"Line.L117"             ,   1,       210.0,       -62.1,         0.0,         0.0,         0.0,         0.0
"Line.L117"             ,   2,      -209.9,        62.4
"Line.SW1"              ,   1,       525.2,       204.7,         0.0,         0.0,         0.0,         0.0
"Line.SW1"              ,   2,      -525.2,      -204.7
"Line.SW2"              ,   1,       280.5,         7.2,         0.0,         0.0,         0.0,         0.0
"Line.SW2"              ,   2,      -280.5,        -7.2
"Line.SW3"              ,   1,        98.3,       105.0,         0.0,         0.0,         0.0,         0.0
"Line.SW3"              ,   2,       -98.3,      -105.0
"Line.SW4"              ,   1,       210.0,       -62.1,         0.0,         0.0,         0.0,         0.0
"Line.SW4"              ,   2,      -210.0,        62.1
"Line.SW5"              ,   1,        71.3,        35.7,         0.0,         0.0,         0.0,         0.0
"Line.SW5"              ,   2,       -71.3,       -35.7
"Line.XFM1"             ,   1,         0.0,         0.0,         0.0,         0.0,         0.0,         0.0
"Line.XFM1"             ,   2,         0.0,         0.0
"Capacitor.C83"         ,   1,         0.0,      -188.8,         0.0,         0.0,         0.0,         0.0
"Capacitor.C83"         ,   2,         0.0,         0.0
"Capacitor.C88"         ,   1,         0.0,       -15.6,         0.0,         0.0,         0.0,         0.0
"Capacitor.C88"         ,   2,         0.0,         0.0
"Capacitor.C90"         ,   1,         0.0,       -15.6,         0.0,         0.0,         0.0,         0.0
"Capacitor.C90"         ,   2,         0.0,         0.0
"Capacitor.C92"         ,   1,         0.0,       -15.6,         0.0,         0.0,         0.0,         0.0
"Capacitor.C92"         ,   2,         0.0,         0.0
"Transformer.REG1A"     ,   1,       525.2,       204.7,         0.0,         0.0,         0.0,         0.0
"Transformer.REG1A"     ,   2,      -525.2,      -204.7
"Transformer.REG2A"     ,   1,        13.4,         6.7,         0.0,         0.0,         0.0,         0.0
"Transformer.REG2A"     ,   2,       -13.4,        -6.7
"Transformer.REG3A"     ,   1,        17.8,         8.9,         0.0,         0.0,         0.0,         0.0
"Transformer.REG3A"     ,   2,       -17.8,        -8.9
"Transformer.REG4A"     ,   1,       210.0,       -62.1,         0.0,         0.0,         0.0,         0.0
"Transformer.REG4A"     ,   2,      -210.0,        62.1
"Load.S1"               ,   1,         8.9,         4.5
"Load.S2"               ,   1,         4.5,         2.2
"Load.S4"               ,   1,         8.9,         4.5
"Load.S5"               ,   1,         4.5,         2.2
"Load.S6"               ,   1,         8.9,         4.5
"Load.S7"               ,   1,         4.5,         2.2
"Load.S9"               ,   1,         8.9,         4.5
"Load.S10"              ,   1,         4.5,         2.2
"Load.S11"              ,   1,         8.9,         4.5
"Load.S12"              ,   1,         4.5,         2.2
"Load.S16"              ,   1,         8.9,         4.5
"Load.S17"              ,   1,         4.5,         2.2
"Load.S19"              ,   1,         8.9,         4.5
"Load.S20"              ,   1,         8.9,         4.5
"Load.S22"              ,   1,         8.9,         4.5
"Load.S24"              ,   1,         8.9,         4.5
"Load.S28"              ,   1,         8.9,         4.5
"Load.S29"              ,   1,         8.9,         4.5
"Load.S30"              ,   1,         8.9,         4.5
"Load.S31"              ,   1,         4.5,         2.2
"Load.S32"              ,   1,         4.5,         2.2
"Load.S33"              ,   1,         8.9,         4.5
"Load.S34"              ,   1,         8.9,         4.5
"Load.S35"              ,   1,         8.9,         4.5
"Load.S37"              ,   1,         8.9,         4.5
"Load.S38"              ,   1,         4.5,         2.2
"Load.S39"              ,   1,         4.5,         2.2
"Load.S41"              ,   1,         4.5,         2.2
"Load.S42"              ,   1,         4.5,         2.2
"Load.S43"              ,   1,         8.9,         4.5
"Load.S45"              ,   1,         4.5,         2.2
"Load.S46"              ,   1,         4.5,         2.2
"Load.S47"              ,   1,        23.4,        16.7
"Load.S48"              ,   1,        46.8,        33.4
"Load.S49"              ,   1,        31.2,        21.2
"Load.S50"              ,   1,         8.9,         4.5
"Load.S51"              ,   1,         4.5,         2.2
"Load.S52"              ,   1,         8.9,         4.5
"Load.S53"              ,   1,         8.9,         4.5
"Load.S55"              ,   1,         4.5,         2.2
"Load.S56"              ,   1,         4.5,         2.2
"Load.S58"              ,   1,         4.5,         2.2
"Load.S59"              ,   1,         4.5,         2.2
"Load.S60"              ,   1,         4.5,         2.2
"Load.S62"              ,   1,         8.9,         4.5
"Load.S63"              ,   1,         8.9,         4.5
"Load.S64"              ,   1,        16.7,         7.8
"Load.S65"              ,   1,        31.2,        22.3
"Load.S66"              ,   1,        16.7,         7.8
"Load.S68"              ,   1,         4.5,         2.2
"Load.S69"              ,   1,         8.9,         4.5
"Load.S70"              ,   1,         4.5,         2.2
"Load.S71"              ,   1,         8.9,         4.5
"Load.S73"              ,   1,         8.9,         4.5
"Load.S74"              ,   1,         8.9,         4.5
"Load.S75"              ,   1,         8.9,         4.5
"Load.S76"              ,   1,        54.6,        40.1
"Load.S77"              ,   1,         8.9,         4.5
"Load.S79"              ,   1,         8.9,         4.5
"Load.S80"              ,   1,         8.9,         4.5
"Load.S82"              ,   1,         8.9,         4.5
"Load.S83"              ,   1,         4.5,         2.2
"Load.S84"              ,   1,         4.5,         2.2
"Load.S85"              ,   1,         8.9,         4.5
"Load.S86"              ,   1,         4.5,         2.2
"Load.S87"              ,   1,         8.9,         4.5
"Load.S88"              ,   1,         8.9,         4.5
"Load.S90"              ,   1,         8.9,         4.5
"Load.S92"              ,   1,         8.9,         4.5
"Load.S94"              ,   1,         8.9,         4.5
"Load.S95"              ,   1,         4.5,         2.2
"Load.S96"              ,   1,         4.5,         2.2
"Load.S98"              ,   1,         8.9,         4.5
"Load.S99"              ,   1,         8.9,         4.5
"Load.S100"             ,   1,         8.9,         4.5
"Load.S102"             ,   1,         4.5,         2.2
"Load.S103"             ,   1,         8.9,         4.5
"Load.S104"             ,   1,         8.9,         4.5
"Load.S106"             ,   1,         8.9,         4.5
"Load.S107"             ,   1,         8.9,         4.5
"Load.S109"             ,   1,         8.9,         4.5
"Load.S111"             ,   1,         4.5,         2.2
"Load.S112"             ,   1,         4.5,         2.2
"Load.S113"             ,   1,         8.9,         4.5
"Load.S114"             ,   1,         4.5,         2.2
"PVSystem.9"            ,   1,       -13.3,         0.0
"PVSystem.28"           ,   1,       -13.3,         0.0
"PVSystem.48"           ,   1,       -70.0,         0.0
"PVSystem.58"           ,   1,        -6.7,         0.0
"PVSystem.65"           ,   1,       -46.7,         0.0
"PVSystem.76"           ,   1,       -81.7,         0.0
"PVSystem.87"           ,   1,       -13.3,         0.0
"PVSystem.100"          ,   1,       -13.3,         0.0
"Storage.BATTERY9"      ,   1,         0.0,         0.0
"Storage.BATTERY28"     ,   1,         0.0,         0.0
"Storage.BATTERY48"     ,   1,         0.0,         0.0
"Storage.BATTERY58"     ,   1,         0.0,         0.0
"Storage.BATTERY65"     ,   1,         0.0,         0.0
"Storage.BATTERY76"     ,   1,         0.0,         0.0
"Storage.BATTERY87"     ,   1,         0.0,         0.0
"Storage.BATTERY100"    ,   1,         0.0,         0.0
